Circuit: *** SPICE deck for cell cs_amplifier{lay} from library VLSI_EXPERIMENTS

Ignoring BSIM parameter XL
Ignoring BSIM parameter XW
Ignoring BSIM parameter XL
Ignoring BSIM parameter XW
Direct Newton iteration for .op point succeeded.

Date: Sun Mar 27 12:13:10 2022
Total elapsed time: 0.168 seconds.

tnom = 27
temp = 27
method = modified trap
totiter = 2090
traniter = 2082
tranpoints = 1042
accept = 1042
rejected = 0
matrix size = 8
fillins = 0
solver = Normal
Matrix Compiler1: 246 bytes object code size  0.2/0.1/[0.1]
Matrix Compiler2: 534 bytes object code size  0.1/0.2/[0.1]


