Circuit: *** SPICE deck for cell inverter{lay} from library VLSI_EXPERIMENTS

Ignoring BSIM parameter XL
Ignoring BSIM parameter XW
Ignoring BSIM parameter XL
Ignoring BSIM parameter XW
Direct Newton iteration for .op point succeeded.

Date: Sat Mar 26 22:12:53 2022
Total elapsed time: 0.054 seconds.

tnom = 27
temp = 27
method = modified trap
totiter = 3769
traniter = 3763
tranpoints = 1531
accept = 1377
rejected = 154
matrix size = 5
fillins = 0
solver = Normal
Matrix Compiler1: 132 bytes object code size  0.2/0.2/[0.1]
Matrix Compiler2: 335 bytes object code size  0.2/0.2/[0.1]


